# CIF file created by FINDSYM, version 7.1.3

data_findsym-output
_audit_creation_method FINDSYM

_cell_length_a    33.9493279356
_cell_length_b    33.9493279356
_cell_length_c    41.5792652763
_cell_angle_alpha 90.0000000000
_cell_angle_beta  90.0000000000
_cell_angle_gamma 120.0000000000
_cell_volume      41502.0744668254

_symmetry_space_group_name_H-M "R 3 m (hexagonal axes)"
_symmetry_Int_Tables_number 160
_space_group.reference_setting '160:R 3 -2"'
_space_group.transform_Pp_abc a,b,c;0,0,0

loop_
_space_group_symop_id
_space_group_symop_operation_xyz
1 x,y,z
2 -y,x-y,z
3 -x+y,-x,z
4 -y,-x,z
5 x,x-y,z
6 -x+y,y,z
7 x+1/3,y+2/3,z+2/3
8 -y+1/3,x-y+2/3,z+2/3
9 -x+y+1/3,-x+2/3,z+2/3
10 -y+1/3,-x+2/3,z+2/3
11 x+1/3,x-y+2/3,z+2/3
12 -x+y+1/3,y+2/3,z+2/3
13 x+2/3,y+1/3,z+1/3
14 -y+2/3,x-y+1/3,z+1/3
15 -x+y+2/3,-x+1/3,z+1/3
16 -y+2/3,-x+1/3,z+1/3
17 x+2/3,x-y+1/3,z+1/3
18 -x+y+2/3,y+1/3,z+1/3

loop_
_atom_site_label
_atom_site_type_symbol
_atom_site_symmetry_multiplicity
_atom_site_Wyckoff_label
_atom_site_fract_x
_atom_site_fract_y
_atom_site_fract_z
_atom_site_occupancy
_atom_site_fract_symmform
Hf1   Hf   3 a 0.00000  0.00000  -0.05246 1.00000 0,0,Dz    
Hf2   Hf   9 b 0.64808  0.35192  0.24369  1.00000 Dx,-Dx,Dz 
O1    O    3 a 0.00000  0.00000  -0.05577 1.00000 0,0,Dz    
O2    O    9 b 0.70164  0.29836  0.24259  1.00000 Dx,-Dx,Dz 
O3    O    3 a 0.00000  0.00000  0.83931  1.00000 0,0,Dz    
O4    O    9 b 0.63169  0.36831  0.20762  1.00000 Dx,-Dx,Dz 
Hf3   Hf   9 b 0.72023  0.27977  0.22731  1.00000 Dx,-Dx,Dz 
Hf4   Hf   9 b 0.70164  0.29836  0.19013  1.00000 Dx,-Dx,Dz 
Hf5   Hf  18 c 0.50819  0.22621  0.17375  1.00000 Dx,Dy,Dz  
O5    O    9 b 0.73661  0.26339  0.20762  1.00000 Dx,-Dx,Dz 
O6    O    9 b 0.77158  0.22842  0.17265  1.00000 Dx,-Dx,Dz 
O7    O   18 c 0.56175  0.22842  0.17265  1.00000 Dx,Dy,Dz  
O8    O    9 b 0.73661  0.26339  0.10270  1.00000 Dx,-Dx,Dz 
O9    O   18 c 0.49181  0.29837  0.13768  1.00000 Dx,Dy,Dz  
O10   O    9 b 0.70164  0.29836  0.13767  1.00000 Dx,-Dx,Dz 
Hf6   Hf   9 b 0.79017  0.20983  0.15737  1.00000 Dx,-Dx,Dz 
Hf7   Hf   9 b 0.77158  0.22842  0.12019  1.00000 Dx,-Dx,Dz 
Hf8   Hf  18 c 0.36830  0.15627  0.10381  1.00000 Dx,Dy,Dz  
O11   O    9 b 0.80655  0.19345  0.13768  1.00000 Dx,-Dx,Dz 
O12   O    9 b 0.84152  0.15848  0.10271  1.00000 Dx,-Dx,Dz 
O13   O   18 c 0.42187  0.15847  0.10270  1.00000 Dx,Dy,Dz  
O14   O    9 b 0.80655  0.19345  0.03276  1.00000 Dx,-Dx,Dz 
O15   O   18 c 0.35193  0.22842  0.06773  1.00000 Dx,Dy,Dz  
O16   O    9 b 0.77158  0.22842  0.06773  1.00000 Dx,-Dx,Dz 
Hf9   Hf   9 b 0.86011  0.13989  0.08743  1.00000 Dx,-Dx,Dz 
Hf10  Hf   9 b 0.84152  0.15848  0.05025  1.00000 Dx,-Dx,Dz 
Hf11  Hf  18 c 0.22842  0.08633  0.03387  1.00000 Dx,Dy,Dz  
O17   O    9 b 0.87649  0.12351  0.06774  1.00000 Dx,-Dx,Dz 
O18   O    9 b -0.08853 0.08853  0.03276  1.00000 Dx,-Dx,Dz 
O19   O   18 c 0.28199  0.08853  0.03276  1.00000 Dx,Dy,Dz  
O20   O    9 b 0.54316  0.45684  0.29615  1.00000 Dx,-Dx,Dz 
O21   O   18 c 0.87871  0.49181  0.33112  1.00000 Dx,Dy,Dz  
O22   O    9 b 0.50819  0.49181  0.33112  1.00000 Dx,-Dx,Dz 
Hf12  Hf   9 b -0.06994 0.06994  0.01748  1.00000 Dx,-Dx,Dz 
Hf13  Hf   9 b 0.57813  0.42187  0.31364  1.00000 Dx,-Dx,Dz 
Hf14  Hf  18 c 0.75520  0.34972  0.29726  1.00000 Dx,Dy,Dz  
O23   O    9 b 0.61310  0.38690  0.33113  1.00000 Dx,-Dx,Dz 
O24   O    9 b 0.64808  0.35192  0.29615  1.00000 Dx,-Dx,Dz 
O25   O   18 c 0.80877  0.35192  0.29615  1.00000 Dx,Dy,Dz  
O26   O    9 b 0.61310  0.38690  0.22621  1.00000 Dx,-Dx,Dz 
O27   O   18 c 0.73882  0.42187  0.26118  1.00000 Dx,Dy,Dz  
O28   O    9 b 0.57813  0.42187  0.26118  1.00000 Dx,-Dx,Dz 
Hf15  Hf   9 b 0.61311  0.38689  0.17375  1.00000 Dx,-Dx,Dz 
Hf16  Hf  18 c 0.66667  0.22842  0.12019  1.00000 Dx,Dy,Dz  
Hf17  Hf   9 b 0.57813  0.42187  0.10381  1.00000 Dx,-Dx,Dz 
O29   O    9 b 0.59672  0.40328  0.13768  1.00000 Dx,-Dx,Dz 
O30   O   18 c 0.52678  0.15848  0.10271  1.00000 Dx,Dy,Dz  
O31   O    9 b 0.63170  0.36830  0.10270  1.00000 Dx,-Dx,Dz 
O32   O    9 b 0.59673  0.40327  0.03276  1.00000 Dx,-Dx,Dz 
O33   O   18 c 0.56176  0.22842  0.06773  1.00000 Dx,Dy,Dz  
O34   O    9 b 0.56175  0.43825  0.06774  1.00000 Dx,-Dx,Dz 
Hf18  Hf  18 c 0.47322  0.15627  0.10381  1.00000 Dx,Dy,Dz  
Hf19  Hf  18 c 0.52678  0.15848  0.05025  1.00000 Dx,Dy,Dz  
Hf20  Hf  18 c 0.43825  0.08632  0.03386  1.00000 Dx,Dy,Dz  
Hf21  Hf  18 c 0.42186  0.15848  0.05025  1.00000 Dx,Dy,Dz  
O35   O   18 c 0.45684  0.12350  0.06773  1.00000 Dx,Dy,Dz  
O36   O   18 c 0.38690  0.08853  0.03276  1.00000 Dx,Dy,Dz  
O37   O   18 c 0.49181  0.08853  0.03276  1.00000 Dx,Dy,Dz  
O38   O   18 c 0.49181  0.19345  0.03276  1.00000 Dx,Dy,Dz  
O39   O   18 c 0.12351  0.45684  0.29615  1.00000 Dx,Dy,Dz  
O40   O   18 c 0.08854  0.49181  0.33112  1.00000 Dx,Dy,Dz  
O41   O   18 c 0.19345  0.49181  0.33112  1.00000 Dx,Dy,Dz  
O42   O   18 c 0.08853  0.38690  0.33113  1.00000 Dx,Dy,Dz  
Hf22  Hf  18 c 0.33333  0.08633  0.03387  1.00000 Dx,Dy,Dz  
Hf23  Hf  18 c 0.05356  0.42187  0.31364  1.00000 Dx,Dy,Dz  
Hf24  Hf  18 c -0.03497 0.34972  0.29726  1.00000 Dx,Dy,Dz  
Hf25  Hf  18 c -0.05135 0.42187  0.31364  1.00000 Dx,Dy,Dz  
O43   O   18 c -0.01638 0.38690  0.33113  1.00000 Dx,Dy,Dz  
O44   O   18 c -0.08632 0.35192  0.29615  1.00000 Dx,Dy,Dz  
O45   O   18 c 0.01859  0.35193  0.29616  1.00000 Dx,Dy,Dz  
O46   O   18 c 0.01860  0.45684  0.29615  1.00000 Dx,Dy,Dz  
O47   O   18 c -0.01638 0.38690  0.22621  1.00000 Dx,Dy,Dz  
O48   O   18 c -0.05135 0.42187  0.26118  1.00000 Dx,Dy,Dz  
O49   O   18 c 0.05357  0.42187  0.26118  1.00000 Dx,Dy,Dz  
O50   O   18 c -0.05135 0.31695  0.26118  1.00000 Dx,Dy,Dz  
Hf26  Hf  18 c 0.86011  0.34972  0.29726  1.00000 Dx,Dy,Dz  
Hf27  Hf  18 c -0.08632 0.35192  0.24369  1.00000 Dx,Dy,Dz  
Hf28  Hf  18 c 0.82515  0.27977  0.22731  1.00000 Dx,Dy,Dz  
Hf29  Hf  18 c 0.80876  0.35193  0.24370  1.00000 Dx,Dy,Dz  
O51   O   18 c 0.84374  0.31695  0.26118  1.00000 Dx,Dy,Dz  
O52   O   18 c 0.77379  0.28198  0.22621  1.00000 Dx,Dy,Dz  
O53   O   18 c 0.87871  0.28198  0.22621  1.00000 Dx,Dy,Dz  
O54   O   18 c 0.87871  0.38690  0.22621  1.00000 Dx,Dy,Dz  
O55   O   18 c 0.84373  0.31696  0.15627  1.00000 Dx,Dy,Dz  
O56   O   18 c 0.80876  0.35193  0.19124  1.00000 Dx,Dy,Dz  
O57   O   18 c -0.08632 0.35193  0.19124  1.00000 Dx,Dy,Dz  
O58   O   18 c 0.80876  0.24701  0.19124  1.00000 Dx,Dy,Dz  
Hf30  Hf   9 b 0.54316  0.45684  0.03387  1.00000 Dx,-Dx,Dz 
Hf31  Hf  18 c 0.26339  0.42187  0.31364  1.00000 Dx,Dy,Dz  
Hf32  Hf   9 b 0.17486  0.82514  0.29725  1.00000 Dx,-Dx,Dz 
O59   O    9 b 0.19345  0.80655  0.33112  1.00000 Dx,-Dx,Dz 
O60   O   18 c 0.12351  0.35192  0.29615  1.00000 Dx,Dy,Dz  
O61   O    9 b 0.22842  0.77158  0.29615  1.00000 Dx,-Dx,Dz 
O62   O    9 b 0.19345  0.80655  0.22621  1.00000 Dx,-Dx,Dz 
O63   O   18 c 0.15848  0.42187  0.26118  1.00000 Dx,Dy,Dz  
O64   O    9 b 0.15848  0.84152  0.26118  1.00000 Dx,-Dx,Dz 
Hf33  Hf  18 c 0.06994  0.34972  0.29726  1.00000 Dx,Dy,Dz  
Hf34  Hf  18 c 0.12351  0.35192  0.24369  1.00000 Dx,Dy,Dz  
Hf35  Hf  18 c 0.03498  0.27977  0.22731  1.00000 Dx,Dy,Dz  
Hf36  Hf  18 c 0.01859  0.35193  0.24370  1.00000 Dx,Dy,Dz  
O65   O   18 c 0.05357  0.31695  0.26118  1.00000 Dx,Dy,Dz  
O66   O   18 c -0.01638 0.28198  0.22621  1.00000 Dx,Dy,Dz  
O67   O   18 c 0.08854  0.28198  0.22621  1.00000 Dx,Dy,Dz  
O68   O   18 c 0.08854  0.38690  0.22621  1.00000 Dx,Dy,Dz  
O69   O   18 c 0.05356  0.31696  0.15627  1.00000 Dx,Dy,Dz  
O70   O   18 c 0.01859  0.35193  0.19124  1.00000 Dx,Dy,Dz  
O71   O   18 c 0.12351  0.35193  0.19124  1.00000 Dx,Dy,Dz  
O72   O   18 c 0.01859  0.24701  0.19124  1.00000 Dx,Dy,Dz  
Hf37  Hf  18 c -0.06994 0.27977  0.22731  1.00000 Dx,Dy,Dz  
Hf38  Hf  18 c -0.01638 0.28198  0.17375  1.00000 Dx,Dy,Dz  
Hf39  Hf  18 c 0.89509  0.20983  0.15737  1.00000 Dx,Dy,Dz  
Hf40  Hf  18 c 0.87871  0.28198  0.17375  1.00000 Dx,Dy,Dz  
O73   O   18 c -0.08632 0.24701  0.19124  1.00000 Dx,Dy,Dz  
O74   O   18 c 0.84373  0.21204  0.15627  1.00000 Dx,Dy,Dz  
O75   O   18 c -0.05135 0.21204  0.15627  1.00000 Dx,Dy,Dz  
O76   O   18 c -0.05135 0.31696  0.15627  1.00000 Dx,Dy,Dz  
O77   O   18 c -0.08632 0.24701  0.08632  1.00000 Dx,Dy,Dz  
O78   O   18 c 0.87871  0.28198  0.12129  1.00000 Dx,Dy,Dz  
O79   O   18 c -0.01638 0.28199  0.12130  1.00000 Dx,Dy,Dz  
O80   O   18 c 0.87870  0.17707  0.12130  1.00000 Dx,Dy,Dz  
Hf41  Hf   9 b 0.13989  0.86011  0.22731  1.00000 Dx,-Dx,Dz 
Hf42  Hf  18 c 0.19345  0.28198  0.17375  1.00000 Dx,Dy,Dz  
Hf43  Hf   9 b 0.10492  0.89508  0.15737  1.00000 Dx,-Dx,Dz 
O81   O    9 b 0.12351  0.87649  0.19124  1.00000 Dx,-Dx,Dz 
O82   O   18 c 0.05356  0.21204  0.15627  1.00000 Dx,Dy,Dz  
O83   O    9 b 0.15848  0.84152  0.15627  1.00000 Dx,-Dx,Dz 
O84   O    9 b 0.12351  0.87649  0.08632  1.00000 Dx,-Dx,Dz 
O85   O   18 c 0.08853  0.28199  0.12130  1.00000 Dx,Dy,Dz  
O86   O    9 b 0.08853  -0.08853 0.12130  1.00000 Dx,-Dx,Dz 
Hf44  Hf  18 c 0.00000  0.20983  0.15737  1.00000 Dx,Dy,Dz  
Hf45  Hf  18 c 0.05356  0.21204  0.10381  1.00000 Dx,Dy,Dz  
Hf46  Hf  18 c -0.03497 0.13989  0.08743  1.00000 Dx,Dy,Dz  
Hf47  Hf  18 c -0.05135 0.21204  0.10381  1.00000 Dx,Dy,Dz  
O87   O   18 c -0.01638 0.17707  0.12130  1.00000 Dx,Dy,Dz  
O88   O   18 c -0.08633 0.14210  0.08633  1.00000 Dx,Dy,Dz  
O89   O   18 c 0.01859  0.14210  0.08633  1.00000 Dx,Dy,Dz  
O90   O   18 c 0.01859  0.24702  0.08633  1.00000 Dx,Dy,Dz  
O91   O   18 c -0.01638 0.17707  0.01638  1.00000 Dx,Dy,Dz  
O92   O   18 c -0.05135 0.21204  0.05135  1.00000 Dx,Dy,Dz  
O93   O   18 c 0.05357  0.21204  0.05135  1.00000 Dx,Dy,Dz  
O94   O   18 c -0.05135 0.10712  0.05135  1.00000 Dx,Dy,Dz  
Hf48  Hf   9 b 0.06994  -0.06994 0.08743  1.00000 Dx,-Dx,Dz 
Hf49  Hf  18 c 0.12350  0.14210  0.03387  1.00000 Dx,Dy,Dz  
Hf50  Hf   9 b 0.03497  -0.03497 0.01749  1.00000 Dx,-Dx,Dz 
O95   O    9 b 0.05356  -0.05356 0.05136  1.00000 Dx,-Dx,Dz 
O96   O   18 c -0.01638 0.07215  0.01638  1.00000 Dx,Dy,Dz  
O97   O    9 b 0.08854  -0.08854 0.01638  1.00000 Dx,-Dx,Dz 
O98   O    9 b 0.72023  0.27977  0.27977  1.00000 Dx,-Dx,Dz 
O99   O   18 c 0.68526  0.47543  0.31474  1.00000 Dx,Dy,Dz  
O100  O    9 b 0.68526  0.31474  0.31474  1.00000 Dx,-Dx,Dz 
Hf51  Hf   3 a 0.00000  0.00000  0.78686  1.00000 0,0,Dz    
Hf52  Hf   9 b 0.63169  0.36831  0.05025  1.00000 Dx,-Dx,Dz 
O101  O    3 a 0.00000  0.00000  0.73440  1.00000 0,0,Dz    
O102  O    9 b 0.70164  0.29836  0.03276  1.00000 Dx,-Dx,Dz 
O103  O    3 a 0.00000  0.00000  0.62949  1.00000 0,0,Dz    
O104  O    9 b 0.29836  0.70164  0.33113  1.00000 Dx,-Dx,Dz 
Hf53  Hf   9 b 0.73661  0.26339  0.05025  1.00000 Dx,-Dx,Dz 
Hf54  Hf   9 b 0.36830  0.63170  0.31364  1.00000 Dx,-Dx,Dz 
Hf55  Hf  18 c 0.15847  0.52678  0.31364  1.00000 Dx,Dy,Dz  
O105  O    9 b 0.40328  0.59672  0.33112  1.00000 Dx,-Dx,Dz 
O106  O    9 b 0.43825  0.56175  0.29615  1.00000 Dx,-Dx,Dz 
O107  O   18 c 0.22842  0.56175  0.29615  1.00000 Dx,Dy,Dz  
O108  O    9 b 0.40328  0.59672  0.22621  1.00000 Dx,-Dx,Dz 
O109  O   18 c 0.15848  0.63169  0.26118  1.00000 Dx,Dy,Dz  
O110  O    9 b 0.36831  0.63169  0.26118  1.00000 Dx,-Dx,Dz 
Hf56  Hf   9 b 0.47322  0.52678  0.31364  1.00000 Dx,-Dx,Dz 
Hf57  Hf   9 b 0.43825  0.56175  0.24369  1.00000 Dx,-Dx,Dz 
Hf58  Hf  18 c 0.01859  0.45684  0.24370  1.00000 Dx,Dy,Dz  
O111  O    9 b 0.47322  0.52678  0.26118  1.00000 Dx,-Dx,Dz 
O112  O    9 b 0.50819  0.49181  0.22621  1.00000 Dx,-Dx,Dz 
O113  O   18 c 0.08854  0.49181  0.22621  1.00000 Dx,Dy,Dz  
O114  O    9 b 0.47322  0.52678  0.15627  1.00000 Dx,-Dx,Dz 
O115  O   18 c 0.01859  0.56175  0.19124  1.00000 Dx,Dy,Dz  
O116  O    9 b 0.43825  0.56175  0.19124  1.00000 Dx,-Dx,Dz 
Hf59  Hf   9 b 0.54316  0.45684  0.24370  1.00000 Dx,-Dx,Dz 
Hf60  Hf   9 b 0.50819  0.49181  0.17375  1.00000 Dx,-Dx,Dz 
Hf61  Hf  18 c 0.87871  0.38689  0.17375  1.00000 Dx,Dy,Dz  
O117  O    9 b 0.54316  0.45684  0.19124  1.00000 Dx,-Dx,Dz 
O118  O    9 b 0.57813  0.42187  0.15627  1.00000 Dx,-Dx,Dz 
O119  O   18 c -0.05135 0.42187  0.15627  1.00000 Dx,Dy,Dz  
O120  O    9 b 0.54316  0.45684  0.08633  1.00000 Dx,-Dx,Dz 
O121  O   18 c 0.87870  0.49181  0.12130  1.00000 Dx,Dy,Dz  
O122  O    9 b 0.50819  0.49181  0.12130  1.00000 Dx,-Dx,Dz 
Hf62  Hf   9 b 0.26339  0.73661  0.31364  1.00000 Dx,-Dx,Dz 
Hf63  Hf  18 c 0.33334  0.56175  0.24369  1.00000 Dx,Dy,Dz  
Hf64  Hf   9 b 0.22842  0.77158  0.24369  1.00000 Dx,-Dx,Dz 
O123  O    9 b 0.26339  0.73661  0.26118  1.00000 Dx,-Dx,Dz 
O124  O   18 c 0.19345  0.49181  0.22621  1.00000 Dx,Dy,Dz  
O125  O    9 b 0.29836  0.70164  0.22621  1.00000 Dx,-Dx,Dz 
O126  O    9 b 0.26339  0.73661  0.15627  1.00000 Dx,-Dx,Dz 
O127  O   18 c 0.22842  0.56175  0.19124  1.00000 Dx,Dy,Dz  
O128  O    9 b 0.22842  0.77158  0.19124  1.00000 Dx,-Dx,Dz 
Hf65  Hf  18 c 0.12350  0.45684  0.24370  1.00000 Dx,Dy,Dz  
Hf66  Hf  18 c 0.19345  0.49181  0.17375  1.00000 Dx,Dy,Dz  
Hf67  Hf  18 c 0.08854  0.38689  0.17375  1.00000 Dx,Dy,Dz  
Hf68  Hf  18 c 0.08854  0.49181  0.17375  1.00000 Dx,Dy,Dz  
O129  O   18 c 0.12351  0.45684  0.19124  1.00000 Dx,Dy,Dz  
O130  O   18 c 0.05356  0.42187  0.15627  1.00000 Dx,Dy,Dz  
O131  O   18 c 0.15848  0.42187  0.15627  1.00000 Dx,Dy,Dz  
O132  O   18 c 0.15848  0.52678  0.15627  1.00000 Dx,Dy,Dz  
O133  O   18 c 0.12350  0.45684  0.08633  1.00000 Dx,Dy,Dz  
O134  O   18 c 0.08853  0.49181  0.12130  1.00000 Dx,Dy,Dz  
O135  O   18 c 0.19345  0.49181  0.12130  1.00000 Dx,Dy,Dz  
O136  O   18 c 0.08853  0.38690  0.12130  1.00000 Dx,Dy,Dz  
Hf69  Hf  18 c -0.01638 0.38689  0.17375  1.00000 Dx,Dy,Dz  
Hf70  Hf  18 c 0.05356  0.42187  0.10381  1.00000 Dx,Dy,Dz  
Hf71  Hf  18 c -0.05135 0.31695  0.10381  1.00000 Dx,Dy,Dz  
Hf72  Hf  18 c -0.05135 0.42187  0.10381  1.00000 Dx,Dy,Dz  
O137  O   18 c -0.01638 0.38690  0.12130  1.00000 Dx,Dy,Dz  
O138  O   18 c -0.08632 0.35192  0.08632  1.00000 Dx,Dy,Dz  
O139  O   18 c 0.01859  0.35193  0.08633  1.00000 Dx,Dy,Dz  
O140  O   18 c 0.01859  0.45684  0.08633  1.00000 Dx,Dy,Dz  
O141  O   18 c -0.01638 0.38689  0.01638  1.00000 Dx,Dy,Dz  
O142  O   18 c -0.05135 0.42186  0.05135  1.00000 Dx,Dy,Dz  
O143  O   18 c 0.05356  0.42187  0.05136  1.00000 Dx,Dy,Dz  
O144  O   18 c -0.05135 0.31695  0.05135  1.00000 Dx,Dy,Dz  
Hf73  Hf   9 b 0.19345  0.80655  0.17375  1.00000 Dx,-Dx,Dz 
Hf74  Hf  18 c 0.26339  0.42187  0.10381  1.00000 Dx,Dy,Dz  
Hf75  Hf   9 b 0.15848  0.84152  0.10381  1.00000 Dx,-Dx,Dz 
O145  O    9 b 0.19345  0.80655  0.12130  1.00000 Dx,-Dx,Dz 
O146  O   18 c 0.12350  0.35193  0.08633  1.00000 Dx,Dy,Dz  
O147  O    9 b 0.22842  0.77158  0.08633  1.00000 Dx,-Dx,Dz 
O148  O    9 b 0.19345  0.80655  0.01638  1.00000 Dx,-Dx,Dz 
O149  O   18 c 0.15847  0.42187  0.05136  1.00000 Dx,Dy,Dz  
O150  O    9 b 0.15848  0.84152  0.05135  1.00000 Dx,-Dx,Dz 
Hf76  Hf  18 c 0.05356  0.31695  0.10381  1.00000 Dx,Dy,Dz  
Hf77  Hf  18 c 0.12350  0.35193  0.03387  1.00000 Dx,Dy,Dz  
Hf78  Hf  18 c 0.01859  0.24701  0.03387  1.00000 Dx,Dy,Dz  
Hf79  Hf  18 c 0.01859  0.35193  0.03387  1.00000 Dx,Dy,Dz  
O151  O   18 c 0.05356  0.31696  0.05136  1.00000 Dx,Dy,Dz  
O152  O   18 c -0.01638 0.28198  0.01638  1.00000 Dx,Dy,Dz  
O153  O   18 c 0.08854  0.28198  0.01638  1.00000 Dx,Dy,Dz  
O154  O   18 c 0.08853  0.38690  0.01639  1.00000 Dx,Dy,Dz  
O155  O   18 c 0.72023  0.65028  0.27977  1.00000 Dx,Dy,Dz  
O156  O   18 c 0.68525  0.68526  0.31475  1.00000 Dx,Dy,Dz  
O157  O   18 c 0.79017  0.68526  0.31475  1.00000 Dx,Dy,Dz  
O158  O   18 c 0.68526  0.58034  0.31474  1.00000 Dx,Dy,Dz  
Hf80  Hf   9 b 0.12350  0.87650  0.03387  1.00000 Dx,-Dx,Dz 
Hf81  Hf  18 c 0.86011  0.61532  0.29726  1.00000 Dx,Dy,Dz  
Hf82  Hf   9 b 0.75520  0.24480  0.29726  1.00000 Dx,-Dx,Dz 
O159  O    9 b 0.79017  0.20983  0.31475  1.00000 Dx,-Dx,Dz 
O160  O   18 c 0.72023  0.54537  0.27977  1.00000 Dx,Dy,Dz  
O161  O    9 b 0.82514  0.17486  0.27978  1.00000 Dx,-Dx,Dz 
O162  O    9 b 0.79017  0.20983  0.20983  1.00000 Dx,-Dx,Dz 
O163  O   18 c 0.75520  0.61531  0.24480  1.00000 Dx,Dy,Dz  
O164  O    9 b 0.75520  0.24480  0.24480  1.00000 Dx,-Dx,Dz 
Hf83  Hf   3 a 0.00000  0.00000  0.57703  1.00000 0,0,Dz    
Hf84  Hf   9 b 0.29836  0.70164  0.17375  1.00000 Dx,-Dx,Dz 
O165  O    3 a 0.00000  0.00000  0.52457  1.00000 0,0,Dz    
O166  O    9 b 0.36830  0.63170  0.15627  1.00000 Dx,-Dx,Dz 
O167  O    3 a 0.00000  0.00000  0.41966  1.00000 0,0,Dz    
O168  O    9 b 0.29836  0.70164  0.12130  1.00000 Dx,-Dx,Dz 
Hf85  Hf   9 b 0.40328  0.59672  0.17375  1.00000 Dx,-Dx,Dz 
Hf86  Hf   9 b 0.36830  0.63170  0.10381  1.00000 Dx,-Dx,Dz 
Hf87  Hf  18 c 0.15848  0.52678  0.10381  1.00000 Dx,Dy,Dz  
O169  O    9 b 0.40327  0.59673  0.12130  1.00000 Dx,-Dx,Dz 
O170  O    9 b 0.43825  0.56175  0.08632  1.00000 Dx,-Dx,Dz 
O171  O   18 c 0.22842  0.56176  0.08633  1.00000 Dx,Dy,Dz  
O172  O    9 b 0.40328  0.59672  0.01638  1.00000 Dx,-Dx,Dz 
O173  O   18 c 0.15848  0.63169  0.05135  1.00000 Dx,Dy,Dz  
O174  O    9 b 0.36830  0.63170  0.05136  1.00000 Dx,-Dx,Dz 
Hf88  Hf   9 b 0.47322  0.52678  0.10381  1.00000 Dx,-Dx,Dz 
Hf89  Hf   9 b 0.43825  0.56175  0.03386  1.00000 Dx,-Dx,Dz 
Hf90  Hf  18 c 0.01859  0.45684  0.03387  1.00000 Dx,Dy,Dz  
O175  O    9 b 0.47322  0.52678  0.05135  1.00000 Dx,-Dx,Dz 
O176  O    9 b 0.50819  0.49181  0.01638  1.00000 Dx,-Dx,Dz 
O177  O   18 c 0.08854  0.49181  0.01638  1.00000 Dx,Dy,Dz  
O178  O    9 b 0.13989  0.86011  0.27977  1.00000 Dx,-Dx,Dz 
O179  O   18 c 0.68526  0.89508  0.31474  1.00000 Dx,Dy,Dz  
O180  O    9 b 0.10491  0.89509  0.31475  1.00000 Dx,-Dx,Dz 
Hf91  Hf   9 b 0.26339  0.73661  0.10381  1.00000 Dx,-Dx,Dz 
Hf92  Hf  18 c 0.33333  0.56176  0.03387  1.00000 Dx,Dy,Dz  
Hf93  Hf   9 b 0.22842  0.77158  0.03387  1.00000 Dx,-Dx,Dz 
O181  O    9 b 0.26339  0.73661  0.05136  1.00000 Dx,-Dx,Dz 
O182  O   18 c 0.19345  0.49181  0.01638  1.00000 Dx,Dy,Dz  
O183  O    9 b 0.29836  0.70164  0.01639  1.00000 Dx,-Dx,Dz 
O184  O    9 b -0.06994 0.06994  0.27977  1.00000 Dx,-Dx,Dz 
O185  O   18 c 0.89508  0.89509  0.31475  1.00000 Dx,Dy,Dz  
O186  O    9 b 0.89509  0.10491  0.31474  1.00000 Dx,-Dx,Dz 
Hf94  Hf  18 c 0.12350  0.45684  0.03387  1.00000 Dx,Dy,Dz  
Hf95  Hf  18 c 0.86011  0.82515  0.29726  1.00000 Dx,Dy,Dz  
Hf96  Hf  18 c 0.75520  0.72023  0.29726  1.00000 Dx,Dy,Dz  
Hf97  Hf  18 c 0.75520  0.82515  0.29726  1.00000 Dx,Dy,Dz  
O187  O   18 c 0.79017  0.79018  0.31475  1.00000 Dx,Dy,Dz  
O188  O   18 c 0.72023  0.75520  0.27977  1.00000 Dx,Dy,Dz  
O189  O   18 c 0.82515  0.75520  0.27977  1.00000 Dx,Dy,Dz  
O190  O   18 c 0.82514  0.86012  0.27978  1.00000 Dx,Dy,Dz  
O191  O   18 c 0.79017  0.79017  0.20983  1.00000 Dx,Dy,Dz  
O192  O   18 c 0.75520  0.82514  0.24480  1.00000 Dx,Dy,Dz  
O193  O   18 c 0.86012  0.82514  0.24480  1.00000 Dx,Dy,Dz  
O194  O   18 c 0.75520  0.72023  0.24480  1.00000 Dx,Dy,Dz  
Hf98  Hf   9 b 0.86011  0.13989  0.29726  1.00000 Dx,-Dx,Dz 
Hf99  Hf  18 c -0.06994 0.75520  0.22731  1.00000 Dx,Dy,Dz  
Hf100 Hf   9 b 0.82514  0.17486  0.22732  1.00000 Dx,-Dx,Dz 
O195  O    9 b 0.86012  0.13988  0.24480  1.00000 Dx,-Dx,Dz 
O196  O   18 c 0.79017  0.68526  0.20983  1.00000 Dx,Dy,Dz  
O197  O    9 b 0.89509  0.10491  0.20983  1.00000 Dx,-Dx,Dz 
O198  O    9 b 0.86011  0.13989  0.13989  1.00000 Dx,-Dx,Dz 
O199  O   18 c 0.82514  0.75520  0.17486  1.00000 Dx,Dy,Dz  
O200  O    9 b 0.82514  0.17486  0.17486  1.00000 Dx,-Dx,Dz 
Hf101 Hf   3 a 0.00000  0.00000  0.36720  1.00000 0,0,Dz    
Hf102 Hf   9 b -0.03497 0.03497  0.29726  1.00000 Dx,-Dx,Dz 
O201  O    3 a 0.00000  0.00000  0.31475  1.00000 0,0,Dz    
O202  O    9 b 0.03497  -0.03497 0.27978  1.00000 Dx,-Dx,Dz 
O203  O    3 a 0.00000  0.00000  0.20983  1.00000 0,0,Dz    
O204  O    9 b -0.03497 0.03497  0.24480  1.00000 Dx,-Dx,Dz 
Hf103 Hf   9 b 0.06994  -0.06994 0.29726  1.00000 Dx,-Dx,Dz 
Hf104 Hf   9 b 0.03497  -0.03497 0.22732  1.00000 Dx,-Dx,Dz 
Hf105 Hf  18 c 0.82514  0.86012  0.22732  1.00000 Dx,Dy,Dz  
O205  O    9 b 0.06994  -0.06994 0.24481  1.00000 Dx,-Dx,Dz 
O206  O    9 b 0.10492  0.89508  0.20983  1.00000 Dx,-Dx,Dz 
O207  O   18 c 0.89509  0.89508  0.20983  1.00000 Dx,Dy,Dz  
O208  O    9 b 0.06994  -0.06994 0.13989  1.00000 Dx,-Dx,Dz 
O209  O   18 c 0.82514  -0.03497 0.17486  1.00000 Dx,Dy,Dz  
O210  O    9 b 0.03497  -0.03497 0.17486  1.00000 Dx,-Dx,Dz 
Hf106 Hf   9 b -0.06994 0.06994  0.22731  1.00000 Dx,-Dx,Dz 
Hf107 Hf  18 c 0.00000  0.89508  0.15737  1.00000 Dx,Dy,Dz  
Hf108 Hf   9 b 0.89509  0.10491  0.15737  1.00000 Dx,-Dx,Dz 
O211  O    9 b -0.06994 0.06994  0.17486  1.00000 Dx,-Dx,Dz 
O212  O   18 c 0.86011  0.82514  0.13989  1.00000 Dx,Dy,Dz  
O213  O    9 b -0.03497 0.03497  0.13989  1.00000 Dx,-Dx,Dz 
O214  O    9 b -0.06994 0.06994  0.06994  1.00000 Dx,-Dx,Dz 
O215  O   18 c 0.89508  0.89509  0.10492  1.00000 Dx,Dy,Dz  
O216  O    9 b 0.89508  0.10492  0.10492  1.00000 Dx,-Dx,Dz 
Hf109 Hf   3 a 0.00000  0.00000  0.15737  1.00000 0,0,Dz    
Hf110 Hf   9 b -0.03497 0.03497  0.08743  1.00000 Dx,-Dx,Dz 
O217  O    3 a 0.00000  0.00000  0.10492  1.00000 0,0,Dz    
O218  O    9 b 0.03497  -0.03497 0.06995  1.00000 Dx,-Dx,Dz 
O219  O    3 a 0.00000  0.00000  0.00000  1.00000 0,0,Dz    
O220  O    9 b -0.03497 0.03497  0.03497  1.00000 Dx,-Dx,Dz 

# end of cif
