LAMMPS (29 Sep 2021 - Update 3)
units		metal
atom_style	charge
dimension       3
boundary        p p p

read_data  	data.c-HfO2
Reading data file ...
  triclinic box = (0.0000000 0.0000000 0.0000000) to (25.344630 25.344630 25.344630) with tilt (0.0000000 0.0000000 0.0000000)
  reading atoms ...
  1500 atoms

mass		1 178.0
group    	type1 type 1
500 atoms in group type1
compute   	charge1 type1 property/atom q
compute   	q1 type1 reduce ave c_charge1
mass		2 16.00
group    	type2 type 2
1000 atoms in group type2
compute   	charge2 type2 property/atom q
compute   	q2 type2 reduce ave c_charge2

pair_style	comb
pair_coeff	* * ffield.comb Hf O
Reading comb potential file ffield.comb with DATE: 2011-02-22

neighbor	0.5 bin
neigh_modify	every 10 delay 10 check yes

timestep        0.00010

thermo_style	custom step temp etotal pe evdwl ecoul press vol lx ly lz xz c_q1 c_q2
thermo_modify	norm yes

fix		1 all nvt temp 300.0 300.0 0.1
thermo      	100
run    		100
  update every 10 steps, delay 10 steps, check yes
Step Temp TotEng PotEng E_vdwl E_coul Press Volume Lx Ly Lz Xz c_q1 c_q2
0            0   -9.9494518   -9.9494518    3.2059618   -13.155414    53304.179     16280.13     25.34463     25.34463     25.34463            0         3.42        -1.71
Loop time of 0.127277 on 144 procs for 100 steps with 1500 atoms

fix  		2 all qeq/comb 1 0.003 file fq.out
run    		500
Step Temp TotEng PotEng E_vdwl E_coul Press Volume Lx Ly Lz Xz c_q1 c_q2
100 1.8015277e-06   -9.9494518   -9.9494518    3.2059618   -13.155414    53304.179     16280.13     25.34463     25.34463     25.34463            0    3.2991984   -1.6495992
Loop time of 0.94294 on 144 procs for 500 steps with 1500 atoms

unfix    	1
fix		1 all box/relax aniso 0.0 vmax 0.0002

# should minimize to higher tolerance in practice

minimize	1.0e-12  1.0e-18  1000  10000
Step Temp TotEng PotEng E_vdwl E_coul Press Volume Lx Ly Lz Xz c_q1 c_q2
600 6.9574766e-07   -10.020906   -10.020906      2.22531   -12.246216   -27700.647     16280.13     25.34463     25.34463     25.34463            0    3.2991984   -1.6495992
Loop time of 0.192059 on 144 procs for 37 steps with 1500 atoms

Minimization stats:
  Stopping criterion = linesearch alpha is zero
  Energy initial, next-to-last, final =
  Force two-norm initial, final = 487.52630 0.29498733
  Force max component initial, final = 281.47344 0.16631144
  Final line search alpha, max atom move = 0.0043451921 0.00072265517
  Iterations, force evaluations = 37 47

#minimize	1.0e-4  1.0e-6  1000  10000
min_modify	dmax 0.005 line quadratic

dump		1 all xyz 50000 *.xyz
dump_modify	1 element Hf O

#dump		1 all cfg 10 *.cfg id type xs ys zs q vx vy vz fx fy fz
#dump_modify	1 element Hf O

velocity	all create 300.1 2398378
thermo   	1000
run  		50000
Step Temp TotEng PotEng E_vdwl E_coul Press Volume Lx Ly Lz Xz c_q1 c_q2
637        300.1   -9.9935749    -10.03234     2.148384   -12.180724     3904.336    15975.401    25.185501    25.185501    25.185501            0    3.2901898   -1.6450949
Averages over the last 26 of 52 rows, steps 26000 to 50637:
Temp TotEng PotEng E_vdwl E_coul Press Volume Lx Ly Lz Xz c_q1 c_q2
300.1 -9.99357 -10.0323 2.14838 -12.1807 3904.34 15975.4 25.1855 25.1855 25.1855 0 3.29019 -1.64509
Loop time of 98.6791 on 144 procs for 50000 steps with 1500 atoms
